REMARK  Name = 
REMARK  7 active torsions:
REMARK  status: ('A' for Active; 'I' for Inactive)
REMARK    1  A    between atoms: _2  and  _3
REMARK    2  A    between atoms: _3  and  _4
REMARK    3  A    between atoms: _6  and  _7
REMARK    4  A    between atoms: _10  and  _8
REMARK    5  A    between atoms: _10  and  _11
REMARK    6  A    between atoms: _13  and  _14
REMARK    7  A    between atoms: _19  and  _20
ROOT
ATOM      4  C3  UNL     1       1.500   0.000   0.000  0.00  0.00     0.000 A
ATOM      5  N1  UNL     1       0.750  -1.299   0.000  0.00  0.00     0.000 NA
ATOM      6  C4  UNL     1      -0.750  -1.299   0.000  0.00  0.00     0.000 A
ATOM     22  C15 UNL     1      -1.500   0.000   0.000  0.00  0.00     0.000 A
ATOM     23  C16 UNL     1      -0.750   1.299   0.000  0.00  0.00     0.000 A
ATOM     24  N3  UNL     1      -1.500   2.598   0.000  0.00  0.00     0.000 N
ATOM     25  C17 UNL     1       0.750   1.299   0.000  0.00  0.00     0.000 A
ATOM     26  C18 UNL     1       1.500   2.598   0.000  0.00  0.00     0.000 C
ATOM     27  N4  UNL     1       2.250   3.897   0.000  0.00  0.00     0.000 N
ENDROOT
BRANCH 6 7
ATOM      7  N2  UNL     1      -1.500  -2.598   0.000  0.00  0.00     0.000 N
ATOM      8  C5  UNL     1      -3.000  -2.598   0.000  0.00  0.00     0.000 C
ATOM      9  O2  UNL     1      -3.750  -1.299   0.000  0.00  0.00     0.000 OA
BRANCH 8 10
ATOM     10  C6  UNL     1      -3.750  -3.897   0.000  0.00  0.00     0.000 C
BRANCH 10 11
ATOM     11  C7  UNL     1      -5.250  -3.897   0.000  0.00  0.00     0.000 A
ATOM     12  C8  UNL     1      -6.000  -2.598   0.000  0.00  0.00     0.000 A
ATOM     13  C9  UNL     1      -7.500  -2.598   0.000  0.00  0.00     0.000 A
ATOM     16  C11 UNL     1      -8.250  -3.897   0.000  0.00  0.00     0.000 A
ATOM     17 BR1  UNL     1      -9.750  -3.897   0.000  0.00  0.00     0.000 Br
ATOM     18  C12 UNL     1      -7.500  -5.196   0.000  0.00  0.00     0.000 A
ATOM     19  C13 UNL     1      -6.000  -5.196   0.000  0.00  0.00     0.000 A
BRANCH 13 14
ATOM     14  O3  UNL     1      -8.250  -1.299   0.000  0.00  0.00     0.000 OA
ATOM     15  C10 UNL     1      -7.500   0.000   0.000  0.00  0.00     0.000 C
ENDBRANCH 13 14
BRANCH 19 20
ATOM     20  O4  UNL     1      -5.250  -6.495   0.000  0.00  0.00     0.000 OA
ATOM     21  C14 UNL     1      -6.000  -7.794   0.000  0.00  0.00     0.000 C
ENDBRANCH 19 20
ENDBRANCH 10 11
ENDBRANCH 8 10
ENDBRANCH 6 7
BRANCH 4 3
ATOM      3  O1  UNL     1       3.000   0.000   0.000  0.00  0.00     0.000 OA
BRANCH 3 2
ATOM      1  C1  UNL     1       5.250  -1.299   0.000  0.00  0.00     0.000 C
ATOM      2  C2  UNL     1       3.750  -1.299   0.000  0.00  0.00     0.000 C
ENDBRANCH 3 2
ENDBRANCH 4 3
TORSDOF 7