REMARK  Name = 
REMARK  2 active torsions:
REMARK  status: ('A' for Active; 'I' for Inactive)
REMARK    1  A    between atoms: _6  and  _7
REMARK    2  A    between atoms: _10  and  _11
ROOT
ATOM      7  C6  UNL     1       1.214  -2.726   0.000  0.00  0.00     0.000 A
ATOM      8  C7  UNL     1       0.750  -1.299   0.000  0.00  0.00     0.000 A
ATOM      9  C8  UNL     1       1.500   0.000   0.000  0.00  0.00     0.000 A
ATOM     10  C9  UNL     1       0.750   1.299   0.000  0.00  0.00     0.000 A
ATOM     16  C12 UNL     1      -0.750   1.299   0.000  0.00  0.00     0.000 A
ATOM     17  C13 UNL     1      -1.500   0.000   0.000  0.00  0.00     0.000 A
ATOM     18  C14 UNL     1      -0.750  -1.299   0.000  0.00  0.00     0.000 A
ATOM     19  N5  UNL     1      -1.214  -2.726   0.000  0.00  0.00     0.000 N
ATOM     20  N6  UNL     1       0.000  -3.607   0.000  0.00  0.00     0.000 NA
ENDROOT
BRANCH 7 6
ATOM      1  N1  UNL     1       6.296  -1.645   0.000  0.00  0.00     0.000 N
ATOM      2  C1  UNL     1       5.181  -2.649   0.000  0.00  0.00     0.000 A
ATOM      3  C2  UNL     1       5.493  -4.116   0.000  0.00  0.00     0.000 A
ATOM      4  C3  UNL     1       4.379  -5.120   0.000  0.00  0.00     0.000 A
ATOM      5  C4  UNL     1       2.952  -4.656   0.000  0.00  0.00     0.000 A
ATOM      6  C5  UNL     1       2.640  -3.189   0.000  0.00  0.00     0.000 A
ATOM     21  C15 UNL     1       3.755  -2.186   0.000  0.00  0.00     0.000 A
ENDBRANCH 7 6
BRANCH 10 11
ATOM     11  C10 UNL     1       1.500   2.598   0.000  0.00  0.00     0.000 A
ATOM     12  N2  UNL     1       0.890   3.968   0.000  0.00  0.00     0.000 NA
ATOM     13  N3  UNL     1       2.005   4.972   0.000  0.00  0.00     0.000 NA
ATOM     14  C11 UNL     1       3.304   4.222   0.000  0.00  0.00     0.000 A
ATOM     15  N4  UNL     1       2.992   2.755   0.000  0.00  0.00     0.000 N
ENDBRANCH 10 11
TORSDOF 2